Model {
  Name			  "NREL5MW_Example_CPC_IPC_R2016b"
  Version		  8.8
  SavedCharacterEncoding  "windows-1252"
  GraphicalInterface {
    NumRootInports	    0
    NumRootOutports	    0
    ParameterArgumentNames  ""
    ComputedModelVersion    "1.933"
    NumModelReferences	    0
    NumTestPointedSignals   5
    TestPointedSignal {
      SignalName	      ""
      FullBlockPath	      "NREL5MW_Example_CPC_IPC_R2016b/NREL Baseline Generator Torque Control"
      LogSignal		      1
      MaxPoints		      5000
      Decimation	      2
    }
    TestPointedSignal {
      SignalName	      "OutData"
      FullBlockPath	      "NREL5MW_Example_CPC_IPC_R2016b/OpenFAST Turbine Model1"
      LogSignal		      1
      MaxPoints		      5000
      Decimation	      2
    }
    TestPointedSignal {
      SignalName	      "y"
      FullBlockPath	      "NREL5MW_Example_CPC_IPC_R2016b/OpenFAST Turbine Model1"
      PortIndex		      2
      LogSignal		      1
      MaxPoints		      5000
      Decimation	      2
    }
    TestPointedSignal {
      SignalName	      "theta_c"
      FullBlockPath	      "NREL5MW_Example_CPC_IPC_R2016b/Participant's New Blade Pitch Control (CPC + IPC)"
      LogSignal		      1
      MaxPoints		      5000
      Decimation	      2
    }
    TestPointedSignal {
      SignalName	      "theta_c"
      FullBlockPath	      "NREL5MW_Example_CPC_IPC_R2016b/Participant's New Blade Pitch Control (CPC + IPC)/Controller"
      " block"
      LogSignal		      1
      MaxPoints		      5000
      Decimation	      2
    }
    NumProvidedFunctions    0
    NumRequiredFunctions    0
    NumResetEvents	    0
    HasInitializeEvent	    0
    HasTerminateEvent	    0
    IsExportFunctionModel   0
  }
  DiagnosticSuppressor	  "on"
  LogicAnalyzerPlugin	  "on"
  ScopeRefreshTime	  0.035000
  OverrideScopeRefreshTime on
  DisableAllScopes	  off
  DataTypeOverride	  "UseLocalSettings"
  DataTypeOverrideAppliesTo "AllNumericTypes"
  MinMaxOverflowLogging	  "UseLocalSettings"
  MinMaxOverflowArchiveMode "Overwrite"
  FPTRunName		  "Run 1"
  MaxMDLFileLineLength	  120
  LastSavedArchitecture	  "win64"
  Object {
    $PropName		    "BdWindowsInfo"
    $ObjectID		    1
    $ClassName		    "Simulink.BDWindowsInfo"
    Object {
      $PropName		      "WindowsInfo"
      $ObjectID		      2
      $ClassName	      "Simulink.WindowInfo"
      IsActive		      [1]
      Location		      [431.0, 0.0, 1096.0, 860.0]
      Object {
	$PropName		"ModelBrowserInfo"
	$ObjectID		3
	$ClassName		"Simulink.ModelBrowserInfo"
	Visible			[0]
	DockPosition		"Left"
	Width			[50]
	Height			[50]
	Filter			[57]
      }
      Object {
	$PropName		"ExplorerBarInfo"
	$ObjectID		4
	$ClassName		"Simulink.ExplorerBarInfo"
	Visible			[1]
      }
      Array {
	Type			"Simulink.EditorInfo"
	Dimension		3
	Object {
	  $ObjectID		  5
	  IsActive		  [1]
	  ViewObjType		  "SimulinkTopLevel"
	  LoadSaveID		  "0"
	  Extents		  [1042.0, 677.0]
	  ZoomFactor		  [1.7499999999999998]
	  Offset		  [33.3928571428571, 193.64285714285711]
	}
	Object {
	  $ObjectID		  6
	  IsActive		  [0]
	  ViewObjType		  "SimulinkSubsys"
	  LoadSaveID		  "7200"
	  Extents		  [1473.0, 921.0]
	  ZoomFactor		  [1.0]
	  Offset		  [-14.0, 0.0]
	}
	Object {
	  $ObjectID		  7
	  IsActive		  [0]
	  ViewObjType		  "SimulinkSubsys"
	  LoadSaveID		  "7201"
	  Extents		  [1042.0, 677.0]
	  ZoomFactor		  [1.5]
	  Offset		  [-254.49869791666663, -213.66666666666669]
	}
	PropName		"EditorsInfo"
      }
      Object {
	$PropName		"DockComponentsInfo"
	$ObjectID		8
	$ClassName		"Simulink.DockComponentInfo"
	Type			"GLUE2:PropertyInspector"
	ID			"Property Inspector"
	Visible			[0]
	CreateCallback		""
	UserData		""
	Floating		[0]
	DockPosition		"Right"
	Width			[640]
	Height			[480]
      }
      WindowState	      "AAAA/wAAAAD9AAAAAgAAAAAAAAC9AAAB+PwCAAAAA/sAAAAWAEQAbwBjAGsAVwBpAGQAZwBlAHQAMwEAAAAxAAAB+AAAA"
      "AAAAAAA+wAAABYARABvAGMAawBXAGkAZABnAGUAdAA0AAAAAAD/////AAAAAAAAAAD7AAAAUgBHAEwAVQBFADIAIAB0AHIAZQBlACAAYwBvAG0Ac"
      "ABvAG4AZQBuAHQALwBHAEwAVQBFADIAIAB0AHIAZQBlACAAYwBvAG0AcABvAG4AZQBuAHQAAAAAAP////8AAABjAP///wAAAAEAAAAAAAAAAPwCA"
      "AAAAfsAAABUAEcATABVAEUAMgA6AFAAcgBvAHAAZQByAHQAeQBJAG4AcwBwAGUAYwB0AG8AcgAvAFAAcgBvAHAAZQByAHQAeQAgAEkAbgBzAHAAZ"
      "QBjAHQAbwByAAAAAAD/////AAAAOQD///8AAAQ4AAAC4QAAAAEAAAACAAAAAQAAAAL8AAAAAQAAAAIAAAAP/////wAAAAAA/////wAAAAAAAAAA/"
      "////wEAAAAA/////wAAAAAAAAAA/////wAAAAAA/////wAAAAAAAAAA/////wAAAAAA/////wAAAAAAAAAA/////wAAAAAA/////wAAAAAAAAAA/"
      "////wEAAAB5/////wAAAAAAAAAA/////wEAAADa/////wAAAAAAAAAA/////wAAAAAA/////wAAAAAAAAAA/////wEAAAFT/////wAAAAAAAAAA/"
      "////wAAAAAA/////wAAAAAAAAAA/////wAAAAAA/////wAAAAAAAAAA/////wAAAAAA/////wAAAAAAAAAA/////wEAAAL9/////wAAAAAAAAAA/"
      "////wAAAAAA/////wAAAAAAAAAA/////wAAAAAA/////wAAAAAAAAAA"
    }
  }
  Created		  "Fri Jan 18 10:49:48 2008"
  Creator		  "Phoenix_Shao"
  UpdateHistory		  "UpdateHistoryNever"
  ModifiedByFormat	  "%<Auto>"
  LastModifiedBy	  "awright"
  ModifiedDateFormat	  "%<Auto>"
  LastModifiedDate	  "Wed Dec 12 10:21:34 2018"
  RTWModifiedTimeStamp	  466510894
  ModelVersionFormat	  "1.%<AutoIncrement:933>"
  SampleTimeColors	  off
  SampleTimeAnnotations	  off
  LibraryLinkDisplay	  "all"
  WideLines		  off
  ShowLineDimensions	  off
  ShowPortDataTypes	  off
  ShowEditTimeErrors	  on
  ShowEditTimeWarnings	  on
  ShowEditTimeAdvisorChecks off
  ShowPortUnits		  off
  ShowDesignRanges	  off
  ShowLoopsOnError	  on
  IgnoreBidirectionalLines off
  ShowStorageClass	  off
  ShowTestPointIcons	  on
  ShowSignalResolutionIcons on
  ShowViewerIcons	  on
  SortedOrder		  off
  VariantCondition	  off
  ExecutionContextIcon	  off
  ShowLinearizationAnnotations on
  ShowVisualizeInsertedRTB on
  ShowMarkup		  on
  BlockNameDataTip	  off
  BlockParametersDataTip  off
  BlockDescriptionStringDataTip	off
  ToolBar		  on
  StatusBar		  on
  BrowserShowLibraryLinks on
  FunctionConnectors	  off
  BrowserLookUnderMasks	  off
  SimulationMode	  "normal"
  PauseTimes		  "5"
  NumberOfSteps		  1
  SnapshotBufferSize	  10
  SnapshotInterval	  10
  NumberOfLastSnapshots	  0
  LinearizationMsg	  "none"
  Profile		  off
  ParamWorkspaceSource	  "MATLABWorkspace"
  AccelSystemTargetFile	  "accel.tlc"
  AccelTemplateMakefile	  "accel_default_tmf"
  AccelMakeCommand	  "make_rtw"
  TryForcingSFcnDF	  off
  Object {
    $PropName		    "DataLoggingOverride"
    $ObjectID		    9
    $ClassName		    "Simulink.SimulationData.ModelLoggingInfo"
    model_		    "NREL5MW_Example_CPC_IPC_R2016b"
    Array {
      Type		      "Cell"
      Dimension		      1
      Cell		      "NREL5MW_Example_CPC_IPC_R2016b"
      PropName		      "logAsSpecifiedByModels_"
    }
    Array {
      Type		      "Cell"
      Dimension		      1
      Cell		      ""
      PropName		      "logAsSpecifiedByModelsSSIDs_"
    }
  }
  Object {
    $PropName		    "InstrumentedSignals"
    $ObjectID		    10
    $ClassName		    "Simulink.HMI.InstrumentedSignals"
    Array {
      Type		      "Struct"
      Dimension		      5
      MATStruct {
	UUID			"fa812559-848f-48ba-8e21-c2483380f692"
	BlockPath_		"NREL Baseline Generator Torque Control"
	SID_			"7038"
	SubPath_		""
	OutputPortIndex_	[1.0]
	LogicalPortIndex_	[0.0]
	SignalName_		""
	SubSysPath_		""
	Decimation_		[1.0]
	MaxPoints_		[0.0]
	TargetBufferedStreaming_ [0.0]
	DomainType_		""
	Array {
	  Type			  "Struct"
	  Dimension		  1
	  MATStruct {
	  }
	  PropName		  "DomainParams_"
	}
      }
      MATStruct {
	UUID			"b67fbcc3-c7cd-496d-8ebf-577245d41c1a"
	BlockPath_		"OpenFAST Turbine Model1"
	SID_			"7200"
	SubPath_		""
	OutputPortIndex_	[1.0]
	LogicalPortIndex_	[0.0]
	SignalName_		""
	SubSysPath_		""
	Decimation_		[1.0]
	MaxPoints_		[0.0]
	TargetBufferedStreaming_ [0.0]
	DomainType_		""
	Array {
	  Type			  "Struct"
	  Dimension		  1
	  MATStruct {
	  }
	  PropName		  "DomainParams_"
	}
      }
      MATStruct {
	UUID			"9d355044-5392-46e8-a614-7be2f2f20c78"
	BlockPath_		"OpenFAST Turbine Model1"
	SID_			"7200"
	SubPath_		""
	OutputPortIndex_	[2.0]
	LogicalPortIndex_	[0.0]
	SignalName_		""
	SubSysPath_		""
	Decimation_		[1.0]
	MaxPoints_		[0.0]
	TargetBufferedStreaming_ [0.0]
	DomainType_		""
	Array {
	  Type			  "Struct"
	  Dimension		  1
	  MATStruct {
	  }
	  PropName		  "DomainParams_"
	}
      }
      MATStruct {
	UUID			"9ca492c6-dca6-45ff-b3ed-11916bbb01be"
	BlockPath_		"Participant's New Blade Pitch Control (CPC + IPC)"
	SID_			"7201"
	SubPath_		""
	OutputPortIndex_	[1.0]
	LogicalPortIndex_	[0.0]
	SignalName_		""
	SubSysPath_		""
	Decimation_		[1.0]
	MaxPoints_		[0.0]
	TargetBufferedStreaming_ [0.0]
	DomainType_		""
	Array {
	  Type			  "Struct"
	  Dimension		  1
	  MATStruct {
	  }
	  PropName		  "DomainParams_"
	}
      }
      MATStruct {
	UUID			"f9b1821b-b34a-412e-b9ea-78b6118bd3b7"
	BlockPath_		"Participant's New Blade Pitch Control (CPC + IPC)/Controller block"
	SID_			"7354"
	SubPath_		""
	OutputPortIndex_	[1.0]
	LogicalPortIndex_	[0.0]
	SignalName_		""
	SubSysPath_		""
	Decimation_		[1.0]
	MaxPoints_		[0.0]
	TargetBufferedStreaming_ [0.0]
	DomainType_		""
	Array {
	  Type			  "Struct"
	  Dimension		  1
	  MATStruct {
	  }
	  PropName		  "DomainParams_"
	}
      }
      PropName		      "Persistence"
    }
  }
  ExtModeBatchMode	  off
  ExtModeEnableFloating	  on
  ExtModeTrigType	  "manual"
  ExtModeTrigMode	  "normal"
  ExtModeTrigPort	  "1"
  ExtModeTrigElement	  "any"
  ExtModeTrigDuration	  1000
  ExtModeTrigDurationFloating "auto"
  ExtModeTrigHoldOff	  0
  ExtModeTrigDelay	  0
  ExtModeTrigDirection	  "rising"
  ExtModeTrigLevel	  0
  ExtModeArchiveMode	  "off"
  ExtModeAutoIncOneShot	  off
  ExtModeIncDirWhenArm	  off
  ExtModeAddSuffixToVar	  off
  ExtModeWriteAllDataToWs off
  ExtModeArmWhenConnect	  on
  ExtModeSkipDownloadWhenConnect off
  ExtModeLogAll		  on
  ExtModeAutoUpdateStatusClock on
  ShowModelReferenceBlockVersion off
  ShowModelReferenceBlockIO off
  Array {
    Type		    "Handle"
    Dimension		    2
    Simulink.ConfigSet {
      $ObjectID		      11
      Version		      "1.16.5"
      DisabledProps	      []
      Description	      ""
      Array {
	Type			"Handle"
	Dimension		9
	Simulink.SolverCC {
	  $ObjectID		  12
	  Version		  "1.16.5"
	  DisabledProps		  []
	  Description		  ""
	  StartTime		  "0.0"
	  StopTime		  "Parameter.Time.TMax"
	  AbsTol		  "auto"
	  FixedStep		  "Parameter.Time.dt"
	  InitialStep		  "auto"
	  MaxOrder		  5
	  ZcThreshold		  "auto"
	  ConsecutiveZCsStepRelTol "10*128*eps"
	  MaxConsecutiveZCs	  "1000"
	  ExtrapolationOrder	  4
	  NumberNewtonIterations  1
	  MaxStep		  "auto"
	  MinStep		  "auto"
	  MaxConsecutiveMinStep	  "1"
	  RelTol		  "1e-3"
	  EnableMultiTasking	  on
	  EnableConcurrentExecution off
	  ConcurrentTasks	  off
	  Solver		  "ode4"
	  SolverName		  "ode4"
	  SolverJacobianMethodControl "auto"
	  ShapePreserveControl	  "DisableAll"
	  ZeroCrossControl	  "UseLocalSettings"
	  ZeroCrossAlgorithm	  "Nonadaptive"
	  AlgebraicLoopSolver	  "TrustRegion"
	  SolverInfoToggleStatus  off
	  IsAutoAppliedInSIP	  off
	  SolverResetMethod	  "Fast"
	  PositivePriorityOrder	  off
	  AutoInsertRateTranBlk	  off
	  SampleTimeConstraint	  "Unconstrained"
	  InsertRTBMode		  "Whenever possible"
	  SampleTimeProperty	  []
	}
	Simulink.DataIOCC {
	  $ObjectID		  13
	  Version		  "1.16.5"
	  DisabledProps		  []
	  Description		  ""
	  Decimation		  "1"
	  ExternalInput		  "[t, u]"
	  FinalStateName	  "xFinal"
	  InitialState		  "xInitial"
	  LimitDataPoints	  on
	  MaxDataPoints		  "1000000"
	  LoadExternalInput	  off
	  LoadInitialState	  off
	  SaveFinalState	  off
	  SaveCompleteFinalSimState off
	  SaveFormat		  "Array"
	  SignalLoggingSaveFormat "ModelDataLogs"
	  SaveOutput		  on
	  SaveState		  off
	  SignalLogging		  on
	  DSMLogging		  on
	  InspectSignalLogs	  off
	  VisualizeSimOutput	  on
	  StreamToWorkspace	  off
	  StreamVariableName	  "streamout"
	  SaveTime		  on
	  ReturnWorkspaceOutputs  off
	  StateSaveName		  "xout"
	  TimeSaveName		  "tout"
	  OutputSaveName	  "yout"
	  SignalLoggingName	  "logsout"
	  DSMLoggingName	  "dsmout"
	  OutputOption		  "RefineOutputTimes"
	  OutputTimes		  "[]"
	  ReturnWorkspaceOutputsName "out"
	  Refine		  "1"
	  LoggingToFile		  off
	  LoggingFileName	  "out.mat"
	  LoggingIntervals	  "[-inf, inf]"
	}
	Simulink.OptimizationCC {
	  $ObjectID		  14
	  Version		  "1.16.5"
	  Array {
	    Type		    "Cell"
	    Dimension		    8
	    Cell		    "ZeroExternalMemoryAtStartup"
	    Cell		    "ZeroInternalMemoryAtStartup"
	    Cell		    "NoFixptDivByZeroProtection"
	    Cell		    "OptimizeModelRefInitCode"
	    Cell		    "BooleansAsBitfields"
	    Cell		    "PassReuseOutputArgsAs"
	    Cell		    "PassReuseOutputArgsThreshold"
	    Cell		    "UseSpecifiedMinMax"
	    PropName		    "DisabledProps"
	  }
	  Description		  ""
	  BlockReduction	  on
	  BooleanDataType	  on
	  ConditionallyExecuteInputs on
	  DefaultParameterBehavior "Tunable"
	  UseDivisionForNetSlopeComputation "off"
	  UseFloatMulNetSlope	  off
	  DefaultUnderspecifiedDataType	"double"
	  UseSpecifiedMinMax	  off
	  InlineInvariantSignals  off
	  OptimizeBlockIOStorage  on
	  BufferReuse		  on
	  EnhancedBackFolding	  off
	  CachingGlobalReferences off
	  GlobalBufferReuse	  on
	  StrengthReduction	  off
	  AdvancedOptControl	  ""
	  ExpressionFolding	  on
	  BooleansAsBitfields	  off
	  BitfieldContainerType	  "uint_T"
	  EnableMemcpy		  on
	  MemcpyThreshold	  64
	  PassReuseOutputArgsAs	  "Structure reference"
	  PassReuseOutputArgsThreshold 12
	  ExpressionDepthLimit	  2147483647
	  LocalBlockOutputs	  on
	  RollThreshold		  5
	  StateBitsets		  off
	  DataBitsets		  off
	  ActiveStateOutputEnumStorageType "Native Integer"
	  ZeroExternalMemoryAtStartup on
	  ZeroInternalMemoryAtStartup on
	  InitFltsAndDblsToZero	  on
	  NoFixptDivByZeroProtection off
	  EfficientFloat2IntCast  off
	  EfficientMapNaN2IntZero on
	  LifeSpan		  "inf"
	  MaxStackSize		  "Inherit from target"
	  BufferReusableBoundary  on
	  SimCompilerOptimization "off"
	  AccelVerboseBuild	  off
	}
	Simulink.DebuggingCC {
	  $ObjectID		  15
	  Version		  "1.16.5"
	  Array {
	    Type		    "Cell"
	    Dimension		    1
	    Cell		    "UseOnlyExistingSharedCode"
	    PropName		    "DisabledProps"
	  }
	  Description		  ""
	  RTPrefix		  "error"
	  ConsistencyChecking	  "none"
	  ArrayBoundsChecking	  "none"
	  SignalInfNanChecking	  "none"
	  SignalRangeChecking	  "none"
	  ReadBeforeWriteMsg	  "UseLocalSettings"
	  WriteAfterWriteMsg	  "UseLocalSettings"
	  WriteAfterReadMsg	  "UseLocalSettings"
	  AlgebraicLoopMsg	  "warning"
	  ArtificialAlgebraicLoopMsg "warning"
	  SaveWithDisabledLinksMsg "warning"
	  SaveWithParameterizedLinksMsg	"none"
	  CheckSSInitialOutputMsg on
	  UnderspecifiedInitializationDetection	"Classic"
	  MergeDetectMultiDrivingBlocksExec "none"
	  CheckExecutionContextPreStartOutputMsg off
	  CheckExecutionContextRuntimeOutputMsg	off
	  SignalResolutionControl "TryResolveAllWithWarning"
	  BlockPriorityViolationMsg "warning"
	  MinStepSizeMsg	  "warning"
	  TimeAdjustmentMsg	  "none"
	  MaxConsecutiveZCsMsg	  "error"
	  MaskedZcDiagnostic	  "warning"
	  IgnoredZcDiagnostic	  "warning"
	  SolverPrmCheckMsg	  "warning"
	  InheritedTsInSrcMsg	  "warning"
	  MultiTaskDSMMsg	  "warning"
	  MultiTaskCondExecSysMsg "none"
	  MultiTaskRateTransMsg	  "error"
	  SingleTaskRateTransMsg  "none"
	  TasksWithSamePriorityMsg "warning"
	  SigSpecEnsureSampleTimeMsg "warning"
	  CheckMatrixSingularityMsg "none"
	  IntegerOverflowMsg	  "warning"
	  Int32ToFloatConvMsg	  "warning"
	  ParameterDowncastMsg	  "error"
	  ParameterOverflowMsg	  "error"
	  ParameterUnderflowMsg	  "none"
	  ParameterPrecisionLossMsg "warning"
	  ParameterTunabilityLossMsg "warning"
	  FixptConstUnderflowMsg  "none"
	  FixptConstOverflowMsg	  "none"
	  FixptConstPrecisionLossMsg "none"
	  UnderSpecifiedDataTypeMsg "none"
	  UnnecessaryDatatypeConvMsg "none"
	  VectorMatrixConversionMsg "none"
	  InvalidFcnCallConnMsg	  "error"
	  FcnCallInpInsideContextMsg "warning"
	  SignalLabelMismatchMsg  "none"
	  UnconnectedInputMsg	  "warning"
	  UnconnectedOutputMsg	  "warning"
	  UnconnectedLineMsg	  "warning"
	  UseOnlyExistingSharedCode "error"
	  SFcnCompatibilityMsg	  "none"
	  FrameProcessingCompatibilityMsg "error"
	  UniqueDataStoreMsg	  "none"
	  BusObjectLabelMismatch  "warning"
	  RootOutportRequireBusObject "warning"
	  AssertControl		  "UseLocalSettings"
	  AllowSymbolicDim	  off
	  RowMajorDimensionSupport off
	  ModelReferenceIOMsg	  "none"
	  ModelReferenceMultiInstanceNormalModeStructChecksumCheck "error"
	  ModelReferenceVersionMismatchMessage "none"
	  ModelReferenceIOMismatchMessage "none"
	  UnknownTsInhSupMsg	  "warning"
	  ModelReferenceDataLoggingMessage "warning"
	  ModelReferenceSymbolNameMessage "warning"
	  ModelReferenceExtraNoncontSigs "error"
	  StateNameClashWarn	  "warning"
	  SimStateInterfaceChecksumMismatchMsg "warning"
	  SimStateOlderReleaseMsg "error"
	  InitInArrayFormatMsg	  "warning"
	  StrictBusMsg		  "ErrorLevel1"
	  BusNameAdapt		  "WarnAndRepair"
	  NonBusSignalsTreatedAsBus "none"
	  SymbolicDimMinMaxWarning "warning"
	  LossOfSymbolicDimsSimulationWarning "warning"
	  LossOfSymbolicDimsCodeGenerationWarning "error"
	  BlockIODiagnostic	  "none"
	  SFUnusedDataAndEventsDiag "warning"
	  SFUnexpectedBacktrackingDiag "warning"
	  SFInvalidInputDataAccessInChartInitDiag "warning"
	  SFNoUnconditionalDefaultTransitionDiag "warning"
	  SFTransitionOutsideNaturalParentDiag "warning"
	  SFUnreachableExecutionPathDiag "warning"
	  SFUndirectedBroadcastEventsDiag "warning"
	  SFTransitionActionBeforeConditionDiag	"warning"
	  SFOutputUsedAsStateInMooreChartDiag "error"
	  SFTemporalDelaySmallerThanSampleTimeDiag "warning"
	  SFSelfTransitionDiag	  "warning"
	  SFExecutionAtInitializationDiag "none"
	  SFMachineParentedDataDiag "warning"
	  IntegerSaturationMsg	  "warning"
	  AllowedUnitSystems	  "all"
	  UnitsInconsistencyMsg	  "warning"
	  AllowAutomaticUnitConversions	on
	}
	Simulink.HardwareCC {
	  $ObjectID		  16
	  Version		  "1.16.5"
	  DisabledProps		  []
	  Description		  ""
	  ProdBitPerChar	  8
	  ProdBitPerShort	  16
	  ProdBitPerInt		  32
	  ProdBitPerLong	  32
	  ProdBitPerLongLong	  64
	  ProdBitPerFloat	  32
	  ProdBitPerDouble	  64
	  ProdBitPerPointer	  32
	  ProdBitPerSizeT	  32
	  ProdBitPerPtrDiffT	  32
	  ProdLargestAtomicInteger "Char"
	  ProdLargestAtomicFloat  "None"
	  ProdIntDivRoundTo	  "Undefined"
	  ProdEndianess		  "Unspecified"
	  ProdWordSize		  32
	  ProdShiftRightIntArith  on
	  ProdLongLongMode	  off
	  ProdHWDeviceType	  "32-bit Generic"
	  TargetBitPerChar	  8
	  TargetBitPerShort	  16
	  TargetBitPerInt	  32
	  TargetBitPerLong	  32
	  TargetBitPerLongLong	  64
	  TargetBitPerFloat	  32
	  TargetBitPerDouble	  64
	  TargetBitPerPointer	  32
	  TargetBitPerSizeT	  32
	  TargetBitPerPtrDiffT	  32
	  TargetLargestAtomicInteger "Char"
	  TargetLargestAtomicFloat "None"
	  TargetShiftRightIntArith on
	  TargetLongLongMode	  off
	  TargetIntDivRoundTo	  "Undefined"
	  TargetEndianess	  "Unspecified"
	  TargetWordSize	  32
	  TargetPreprocMaxBitsSint 32
	  TargetPreprocMaxBitsUint 32
	  TargetHWDeviceType	  "32-bit Generic"
	  TargetUnknown		  off
	  ProdEqTarget		  on
	  UseEmbeddedCoderFeatures on
	  UseSimulinkCoderFeatures on
	}
	Simulink.ModelReferenceCC {
	  $ObjectID		  17
	  Version		  "1.16.5"
	  DisabledProps		  []
	  Description		  ""
	  UpdateModelReferenceTargets "IfOutOfDateOrStructuralChange"
	  EnableRefExpFcnMdlSchedulingChecks on
	  CheckModelReferenceTargetMessage "error"
	  EnableParallelModelReferenceBuilds off
	  ParallelModelReferenceErrorOnInvalidPool on
	  ParallelModelReferenceMATLABWorkerInit "None"
	  ModelReferenceNumInstancesAllowed "Multi"
	  PropagateVarSize	  "Infer from blocks in model"
	  ModelDependencies	  ""
	  ModelReferencePassRootInputsByReference on
	  ModelReferenceMinAlgLoopOccurrences off
	  PropagateSignalLabelsOutOfModel off
	  SupportModelReferenceSimTargetCustomCode off
	}
	Simulink.SFSimCC {
	  $ObjectID		  18
	  Version		  "1.16.5"
	  DisabledProps		  []
	  Description		  ""
	  SimCustomSourceCode	  ""
	  SimCustomHeaderCode	  ""
	  SimCustomInitializer	  ""
	  SimCustomTerminator	  ""
	  SimReservedNameArray	  []
	  SimUserSources	  ""
	  SimUserIncludeDirs	  ""
	  SimUserLibraries	  ""
	  SimUserDefines	  ""
	  SimCustomCompilerFlags  ""
	  SimCustomLinkerFlags	  ""
	  SFSimEcho		  on
	  SimCtrlC		  on
	  SimIntegrity		  on
	  SimUseLocalCustomCode	  off
	  SimParseCustomCode	  on
	  SimBuildMode		  "sf_incremental_build"
	  SimGenImportedTypeDefs  off
	  ModelFunctionsGlobalVisibility "on"
	  CompileTimeRecursionLimit 50
	  EnableRuntimeRecursion  on
	}
	Simulink.RTWCC {
	  $BackupClass		  "Simulink.RTWCC"
	  $ObjectID		  19
	  Version		  "1.16.5"
	  Array {
	    Type		    "Cell"
	    Dimension		    16
	    Cell		    "IncludeHyperlinkInReport"
	    Cell		    "GenerateTraceInfo"
	    Cell		    "GenerateTraceReport"
	    Cell		    "GenerateTraceReportSl"
	    Cell		    "GenerateTraceReportSf"
	    Cell		    "GenerateTraceReportEml"
	    Cell		    "PortableWordSizes"
	    Cell		    "GenerateWebview"
	    Cell		    "GenerateCodeMetricsReport"
	    Cell		    "GenerateCodeReplacementReport"
	    Cell		    "GenerateMissedCodeReplacementReport"
	    Cell		    "GenerateErtSFunction"
	    Cell		    "CreateSILPILBlock"
	    Cell		    "CodeExecutionProfiling"
	    Cell		    "CodeProfilingSaveOptions"
	    Cell		    "CodeProfilingInstrumentation"
	    PropName		    "DisabledProps"
	  }
	  SystemTargetFile	  "grt.tlc"
	  HardwareBoard		  "None"
	  TLCOptions		  ""
	  GenCodeOnly		  off
	  MakeCommand		  "make_rtw"
	  GenerateMakefile	  on
	  PackageGeneratedCodeAndArtifacts off
	  PackageName		  ""
	  TemplateMakefile	  "grt_default_tmf"
	  PostCodeGenCommand	  ""
	  Description		  ""
	  GenerateReport	  off
	  RTWVerbose		  on
	  RetainRTWFile		  off
	  RTWBuildHooks		  []
	  ProfileTLC		  off
	  TLCDebug		  off
	  TLCCoverage		  off
	  TLCAssert		  off
	  RTWUseLocalCustomCode	  off
	  RTWUseSimCustomCode	  off
	  CustomSourceCode	  ""
	  CustomHeaderCode	  ""
	  CustomInclude		  ""
	  CustomSource		  ""
	  CustomLibrary		  ""
	  CustomDefine		  ""
	  CustomLAPACKCallback	  ""
	  CustomInitializer	  ""
	  CustomTerminator	  ""
	  Toolchain		  "Automatically locate an installed toolchain"
	  BuildConfiguration	  "Faster Builds"
	  CustomToolchainOptions  []
	  IncludeHyperlinkInReport off
	  LaunchReport		  off
	  PortableWordSizes	  off
	  CreateSILPILBlock	  "None"
	  CodeExecutionProfiling  off
	  CodeExecutionProfileVariable "executionProfile"
	  CodeProfilingSaveOptions "SummaryOnly"
	  CodeProfilingInstrumentation off
	  SILDebugging		  off
	  TargetLang		  "C"
	  IncludeBusHierarchyInRTWFileBlockHierarchyMap	off
	  GenerateTraceInfo	  off
	  GenerateTraceReport	  off
	  GenerateTraceReportSl	  off
	  GenerateTraceReportSf	  off
	  GenerateTraceReportEml  off
	  GenerateWebview	  off
	  GenerateCodeMetricsReport off
	  GenerateCodeReplacementReport	off
	  GenerateMissedCodeReplacementReport off
	  RTWCompilerOptimization "off"
	  ObjectivePriorities	  []
	  RTWCustomCompilerOptimizations ""
	  CheckMdlBeforeBuild	  "Off"
	  SharedConstantsCachingThreshold 1024
	  Array {
	    Type		    "Handle"
	    Dimension		    2
	    Simulink.CodeAppCC {
	      $ObjectID		      20
	      Version		      "1.16.5"
	      Array {
		Type			"Cell"
		Dimension		28
		Cell			"IgnoreCustomStorageClasses"
		Cell			"InsertBlockDesc"
		Cell			"SFDataObjDesc"
		Cell			"SimulinkDataObjDesc"
		Cell			"DefineNamingRule"
		Cell			"SignalNamingRule"
		Cell			"ParamNamingRule"
		Cell			"InlinedPrmAccess"
		Cell			"CustomSymbolStr"
		Cell			"IgnoreTestpoints"
		Cell			"InsertPolySpaceComments"
		Cell			"MATLABFcnDesc"
		Cell			"InternalIdentifier"
		Cell			"CustomSymbolStrGlobalVar"
		Cell			"CustomSymbolStrType"
		Cell			"CustomSymbolStrField"
		Cell			"CustomSymbolStrFcn"
		Cell			"CustomSymbolStrModelFcn"
		Cell			"CustomSymbolStrFcnArg"
		Cell			"CustomSymbolStrBlkIO"
		Cell			"CustomSymbolStrTmpVar"
		Cell			"CustomSymbolStrMacro"
		Cell			"CustomSymbolStrUtil"
		Cell			"CustomUserTokenString"
		Cell			"ReqsInCode"
		Cell			"BlockCommentType"
		Cell			"CustomSymbolStrEmxType"
		Cell			"CustomSymbolStrEmxFcn"
		PropName		"DisabledProps"
	      }
	      Description	      ""
	      Comment		      ""
	      ForceParamTrailComments off
	      GenerateComments	      on
	      CommentStyle	      "Auto"
	      IgnoreCustomStorageClasses on
	      IgnoreTestpoints	      off
	      MaxIdLength	      31
	      PreserveName	      off
	      PreserveNameWithParent  off
	      ShowEliminatedStatement off
	      OperatorAnnotations     off
	      SimulinkDataObjDesc     off
	      SFDataObjDesc	      off
	      MATLABFcnDesc	      off
	      MangleLength	      1
	      CustomSymbolStrGlobalVar "$R$N$M"
	      CustomSymbolStrType     "$N$R$M_T"
	      CustomSymbolStrField    "$N$M"
	      CustomSymbolStrFcn      "$R$N$M$F"
	      CustomSymbolStrModelFcn "$R$N"
	      CustomSymbolStrFcnArg   "rt$I$N$M"
	      CustomSymbolStrBlkIO    "rtb_$N$M"
	      CustomSymbolStrTmpVar   "$N$M"
	      CustomSymbolStrMacro    "$R$N$M"
	      CustomSymbolStrUtil     "$N$C"
	      CustomUserTokenString   ""
	      CustomCommentsFcn	      ""
	      DefineNamingRule	      "None"
	      DefineNamingFcn	      ""
	      ParamNamingRule	      "None"
	      ParamNamingFcn	      ""
	      SignalNamingRule	      "None"
	      SignalNamingFcn	      ""
	      InsertBlockDesc	      off
	      InsertPolySpaceComments off
	      SimulinkBlockComments   on
	      MATLABSourceComments    off
	      EnableCustomComments    off
	      InternalIdentifierFile  ""
	      InternalIdentifier      "Shortened"
	      InlinedPrmAccess	      "Literals"
	      ReqsInCode	      off
	      UseSimReservedNames     off
	      ReservedNameArray	      []
	    }
	    Simulink.GRTTargetCC {
	      $BackupClass	      "Simulink.TargetCC"
	      $ObjectID		      21
	      Version		      "1.16.5"
	      Array {
		Type			"Cell"
		Dimension		18
		Cell			"IncludeMdlTerminateFcn"
		Cell			"CombineOutputUpdateFcns"
		Cell			"SuppressErrorStatus"
		Cell			"ERTCustomFileBanners"
		Cell			"GenerateSampleERTMain"
		Cell			"SupportNonInlinedSFcns"
		Cell			"PurelyIntegerCode"
		Cell			"SupportNonFinite"
		Cell			"SupportComplex"
		Cell			"SupportAbsoluteTime"
		Cell			"SupportContinuousTime"
		Cell			"GenerateAllocFcn"
		Cell			"ExistingSharedCode"
		Cell			"GenerateTestInterfaces"
		Cell			"ModelStepFunctionPrototypeControlCompliant"
		Cell			"RemoveDisableFunc"
		Cell			"RemoveResetFunc"
		Cell			"PreserveStateflowLocalDataDimensions"
		PropName		"DisabledProps"
	      }
	      Description	      ""
	      TargetFcnLib	      "ansi_tfl_tmw.mat"
	      TargetLibSuffix	      ""
	      TargetPreCompLibLocation ""
	      GenFloatMathFcnCalls    "NOT IN USE"
	      TargetLangStandard      "C89/C90 (ANSI)"
	      CodeReplacementLibrary  "None"
	      UtilityFuncGeneration   "Auto"
	      ERTMultiwordTypeDef     "System defined"
	      MultiwordLength	      2048
	      GenerateFullHeader      on
	      InferredTypesCompatibility off
	      ExistingSharedCode      ""
	      GenerateSampleERTMain   off
	      GenerateTestInterfaces  off
	      ModelReferenceCompliant on
	      ParMdlRefBuildCompliant on
	      CompOptLevelCompliant   on
	      ConcurrentExecutionCompliant on
	      IncludeMdlTerminateFcn  on
	      GeneratePreprocessorConditionals "Disable all"
	      CombineOutputUpdateFcns off
	      CombineSignalStateStructs	off
	      SuppressErrorStatus     off
	      IncludeFileDelimiter    "Auto"
	      ERTCustomFileBanners    off
	      SupportAbsoluteTime     on
	      LogVarNameModifier      "rt_"
	      MatFileLogging	      on
	      MultiInstanceERTCode    off
	      CodeInterfacePackaging  "Nonreusable function"
	      SupportNonFinite	      on
	      SupportComplex	      on
	      PurelyIntegerCode	      off
	      SupportContinuousTime   on
	      SupportNonInlinedSFcns  on
	      RemoveDisableFunc	      off
	      RemoveResetFunc	      off
	      SupportVariableSizeSignals off
	      ParenthesesLevel	      "Nominal"
	      CastingMode	      "Nominal"
	      MATLABClassNameForMDSCustomization "Simulink.SoftwareTarget.GRTCustomization"
	      ModelStepFunctionPrototypeControlCompliant off
	      CPPClassGenCompliant    on
	      AutosarCompliant	      off
	      MDXCompliant	      off
	      GRTInterface	      on
	      GenerateAllocFcn	      off
	      UseToolchainInfoCompliant	off
	      GenerateSharedConstants on
	      CoderGroups	      []
	      UseMalloc		      off
	      ExtMode		      off
	      ExtModeStaticAlloc      off
	      ExtModeTesting	      off
	      ExtModeStaticAllocSize  1000000
	      ExtModeTransport	      0
	      ExtModeMexFile	      "ext_comm"
	      ExtModeMexArgs	      ""
	      ExtModeIntrfLevel	      "Level1"
	      RTWCAPISignals	      off
	      RTWCAPIParams	      off
	      RTWCAPIStates	      off
	      RTWCAPIRootIO	      off
	      GenerateASAP2	      off
	      MultiInstanceErrorCode  "Error"
	    }
	    PropName		    "Components"
	  }
	}
	SlCovCC.ConfigComp {
	  $ObjectID		  22
	  Version		  "1.16.5"
	  DisabledProps		  []
	  Description		  "Simulink Coverage Configuration Component"
	  Name			  "Simulink Coverage"
	  CovEnable		  off
	  CovScope		  "EntireSystem"
	  CovIncludeTopModel	  on
	  RecordCoverage	  off
	  CovPath		  "/"
	  CovSaveName		  "covdata"
	  CovCompData		  ""
	  CovMetricSettings	  "dw"
	  CovFilter		  ""
	  CovHTMLOptions	  ""
	  CovNameIncrementing	  off
	  CovHtmlReporting	  on
	  CovForceBlockReductionOff on
	  CovEnableCumulative	  on
	  CovSaveCumulativeToWorkspaceVar on
	  CovSaveSingleToWorkspaceVar on
	  CovCumulativeVarName	  "covCumulativeData"
	  CovCumulativeReport	  off
	  CovSaveOutputData	  on
	  CovOutputDir		  "slcov_output/$ModelName$"
	  CovDataFileName	  "$ModelName$_cvdata"
	  CovShowResultsExplorer  on