Model {
  Name			  "NREL5MW_Baseline_fcnblock"
  Version		  10.1
  SavedCharacterEncoding  "windows-1252"
  GraphicalInterface {
    NumRootInports	    0
    NumRootOutports	    0
    ParameterArgumentNames  ""
    ComputedModelVersion    "1.927"
    NumModelReferences	    0
    NumTestPointedSignals   4
    TestPointedSignal {
      SignalName	      "theta_c"
      FullBlockPath	      "NREL5MW_Baseline_fcnblock/NREL Baseline Blade Pitch Control"
      LogSignal		      1
      MaxPoints		      5000
      Decimation	      2
    }
    TestPointedSignal {
      SignalName	      ""
      FullBlockPath	      "NREL5MW_Baseline_fcnblock/NREL Baseline Generator Torque Control"
      LogSignal		      1
      MaxPoints		      5000
      Decimation	      2
    }
    TestPointedSignal {
      SignalName	      "OutData"
      FullBlockPath	      "NREL5MW_Baseline_fcnblock/OpenFAST Turbine Model"
      LogSignal		      1
      MaxPoints		      5000
      Decimation	      2
    }
    TestPointedSignal {
      SignalName	      "y"
      FullBlockPath	      "NREL5MW_Baseline_fcnblock/OpenFAST Turbine Model"
      PortIndex		      2
      LogSignal		      1
      MaxPoints		      5000
      Decimation	      2
    }
    NumProvidedFunctions    0
    NumRequiredFunctions    0
    NumResetEvents	    0
    HasInitializeEvent	    0
    HasTerminateEvent	    0
    PreCompExecutionDomainType "Unset"
    IsExportFunctionModel   0
    IsArchitectureModel	    0
    IsAUTOSARArchitectureModel 0
    NumParameterArguments   0
    NumExternalFileReferences 0
    OrderedModelArguments   1
  }
  DiagnosticSuppressor	  "on"
  AnimationPlugin	  "on"
  LogicAnalyzerPlugin	  "on"
  SLCCPlugin		  "on"
  WebScopes_FoundationPlugin "on"
  NotesPlugin		  "on"
  EnableAccessToBaseWorkspace on
  ScopeRefreshTime	  0.035000
  OverrideScopeRefreshTime on
  DisableAllScopes	  off
  DataTypeOverride	  "UseLocalSettings"
  DataTypeOverrideAppliesTo "AllNumericTypes"
  MinMaxOverflowLogging	  "UseLocalSettings"
  MinMaxOverflowArchiveMode "Overwrite"
  FPTRunName		  "Run 1"
  MaxMDLFileLineLength	  120
  LastSavedArchitecture	  "win64"
  Object {
    $PropName		    "BdWindowsInfo"
    $ObjectID		    1
    $ClassName		    "Simulink.BDWindowsInfo"
    Object {
      $PropName		      "WindowsInfo"
      $ObjectID		      2
      $ClassName	      "Simulink.WindowInfo"
      IsActive		      [1]
      Location		      [1553.0, 28.0, 1590.0, 873.0]
      Object {
	$PropName		"ModelBrowserInfo"
	$ObjectID		3
	$ClassName		"Simulink.ModelBrowserInfo"
	Visible			[0]
	DockPosition		"Left"
	Width			[50]
	Height			[50]
	Filter			[57]
	Minimized		"Unset"
      }
      Object {
	$PropName		"ExplorerBarInfo"
	$ObjectID		4
	$ClassName		"Simulink.ExplorerBarInfo"
	Visible			[1]
      }
      Array {
	Type			"Simulink.EditorInfo"
	Dimension		6
	Object {
	  $ObjectID		  5
	  IsActive		  [1]
	  IsTabbed		  [1]
	  ViewObjType		  "SimulinkSubsys"
	  LoadSaveID		  "6692"
	  Extents		  [1536.0, 631.0]
	  ZoomFactor		  [1.0]
	  Offset		  [31.439750188788253, -236.67620232172473]
	  SceneRectInView	  [31.439750188788253, -236.67620232172473, 1536.0, 631.0]
	}
	Object {
	  $ObjectID		  6
	  IsActive		  [0]
	  IsTabbed		  [0]
	  ViewObjType		  "SimulinkTopLevel"
	  LoadSaveID		  "0"
	  Extents		  [1536.0, 631.0]
	  ZoomFactor		  [1.75]
	  Offset		  [0.0, 212.2]
	  SceneRectInView	  [0.0, 212.2, 877.71428571428567, 360.57142857142856]
	}
	Object {
	  $ObjectID		  7
	  IsActive		  [0]
	  IsTabbed		  [0]
	  ViewObjType		  "SimulinkSubsys"
	  LoadSaveID		  "7200"
	  Extents		  [1536.0, 631.0]
	  ZoomFactor		  [1.0]
	  Offset		  [-186.1952380952373, 51.195238095237642]
	  SceneRectInView	  [-186.1952380952373, 51.195238095237642, 1536.0, 631.0]
	}
	Object {
	  $ObjectID		  8
	  IsActive		  [0]
	  IsTabbed		  [0]
	  ViewObjType		  "SimulinkSubsys"
	  LoadSaveID		  "6738"
	  Extents		  [1536.0, 631.0]
	  ZoomFactor		  [0.5]
	  Offset		  [-842.52925350511566, -275.81904761904764]
	  SceneRectInView	  [-842.52925350511566, -275.81904761904764, 3072.0, 1262.0]
	}
	Object {
	  $ObjectID		  9
	  IsActive		  [0]
	  IsTabbed		  [0]
	  ViewObjType		  "SimulinkSubsys"
	  LoadSaveID		  "6699"
	  Extents		  [1536.0, 631.0]
	  ZoomFactor		  [1.0]
	  Offset		  [-287.66150165731705, -43.043915009349462]
	  SceneRectInView	  [-287.66150165731705, -43.043915009349462, 1536.0, 631.0]
	}
	Object {
	  $ObjectID		  10
	  IsActive		  [0]
	  IsTabbed		  [0]
	  ViewObjType		  "SimulinkSubsys"
	  LoadSaveID		  "7183"
	  Extents		  [1536.0, 631.0]
	  ZoomFactor		  [1.0]
	  Offset		  [-445.5, -22.0]
	  SceneRectInView	  [-445.5, -22.0, 1536.0, 631.0]
	}
	PropName		"EditorsInfo"
      }
      Object {
	$PropName		"DockComponentsInfo"
	$ObjectID		11
	$ClassName		"Simulink.DockComponentInfo"
	Type			"GLUE2:PropertyInspector"
	ID			"Property Inspector"
	Visible			[0]
	CreateCallback		""
	UserData		""
	Floating		[0]
	DockPosition		"Right"
	Width			[640]
	Height			[480]
	Minimized		"Unset"
      }
      WindowState	      "AAAA/wAAAAD9AAAAAgAAAAAAAAC9AAAB+PwCAAAAA/sAAAAWAEQAbwBjAGsAVwBpAGQAZwBlAHQAMwEAAAAxAAAB+AAAA"
      "AAAAAAA+wAAABYARABvAGMAawBXAGkAZABnAGUAdAA0AAAAAAD/////AAAAAAAAAAD7AAAAUgBHAEwAVQBFADIAIAB0AHIAZQBlACAAYwBvAG0Ac"
      "ABvAG4AZQBuAHQALwBHAEwAVQBFADIAIAB0AHIAZQBlACAAYwBvAG0AcABvAG4AZQBuAHQAAAAAAP////8AAABjAP///wAAAAEAAAAAAAAAAPwCA"
      "AAAAfsAAABUAEcATABVAEUAMgA6AFAAcgBvAHAAZQByAHQAeQBJAG4AcwBwAGUAYwB0AG8AcgAvAFAAcgBvAHAAZQByAHQAeQAgAEkAbgBzAHAAZ"
      "QBjAHQAbwByAAAAAAD/////AAABrAD///8AAAYmAAACtAAAAAEAAAACAAAAAQAAAAL8AAAAAQAAAAIAAAAA"
      Array {
	Type			"Cell"
	Dimension		0
	PropName		"PersistedApps"
      }
      WindowUuid	      "3847ea49-248f-46f5-8294-3181d8bfe959"
    }
    BDUuid		    "90af0e30-d98b-4332-9bbd-abf64a0ff37a"
  }
  HideAutomaticNames	  on
  Created		  "Fri Jan 18 10:49:48 2008"
  Creator		  "Phoenix_Shao"
  UpdateHistory		  "UpdateHistoryNever"
  ModifiedByFormat	  "%<Auto>"
  LastModifiedBy	  "jveli"
  ModifiedDateFormat	  "%<Auto>"
  LastModifiedDate	  "Sat May 23 17:37:25 2020"
  RTWModifiedTimeStamp	  512156209
  ModelVersionFormat	  "1.%<AutoIncrement:927>"
  SampleTimeColors	  off
  SampleTimeAnnotations	  off
  LibraryLinkDisplay	  "all"
  WideLines		  off
  ShowLineDimensions	  off
  ShowPortDataTypes	  off
  ShowAllPropagatedSignalLabels	off
  PortDataTypeDisplayFormat "AliasTypeOnly"
  ShowEditTimeErrors	  on
  ShowEditTimeWarnings	  on
  ShowEditTimeAdvisorChecks off
  ShowPortUnits		  off
  ShowDesignRanges	  off
  ShowLoopsOnError	  on
  IgnoreBidirectionalLines off
  ShowStorageClass	  off
  ShowTestPointIcons	  on
  ShowSignalResolutionIcons on
  ShowViewerIcons	  on
  SortedOrder		  off
  VariantCondition	  off
  ShowLinearizationAnnotations on
  ShowVisualizeInsertedRTB on
  ShowMarkup		  on
  BlockNameDataTip	  off
  BlockParametersDataTip  off
  BlockDescriptionStringDataTip	off
  BlockVariantConditionDataTip off
  ToolBar		  on
  StatusBar		  on
  BrowserShowLibraryLinks on
  FunctionConnectors	  off
  BrowserLookUnderMasks	  off
  MultiThreadCoSim	  "on"
  SimulationMode	  "normal"
  SILPILModeSetting	  "automated"
  SILPILSystemUnderTest	  "topmodel"
  SILPILSimulationModeTopModel "normal"
  SILPILSimulationModeModelRef "normal"
  SimTabSimulationMode	  "normal"
  CodeVerificationMode	  "software-in-the-loop (sil)"
  PauseTimes		  "5"
  NumberOfSteps		  1
  SnapshotBufferSize	  10
  SnapshotInterval	  10
  NumberOfLastSnapshots	  0
  EnablePacing		  off
  PacingRate		  1
  LinearizationMsg	  "none"
  Profile		  off
  ParamWorkspaceSource	  "MATLABWorkspace"
  AccelSystemTargetFile	  "accel.tlc"
  AccelTemplateMakefile	  "accel_default_tmf"
  AccelMakeCommand	  "make_rtw"
  TryForcingSFcnDF	  off
  Object {
    $PropName		    "DataLoggingOverride"
    $ObjectID		    12
    $ClassName		    "Simulink.SimulationData.ModelLoggingInfo"
    model_		    "NREL5MW_Baseline_fcnblock"
    Array {
      Type		      "Cell"
      Dimension		      1
      Cell		      "NREL5MW_Baseline_fcnblock"
      PropName		      "logAsSpecifiedByModels_"
    }
    Array {
      Type		      "Cell"
      Dimension		      1
      Cell		      ""
      PropName		      "logAsSpecifiedByModelsSSIDs_"
    }
  }
  Object {
    $PropName		    "InstrumentedSignals"
    $ObjectID		    13
    $ClassName		    "Simulink.HMI.InstrumentedSignals"
    Array {
      Type		      "Struct"
      Dimension		      4
      MATStruct {
	UUID			"16340dd3-fabf-4cc3-80ad-6348004b0e42"
	BlockPath_		"NREL Baseline Blade Pitch Control"
	SID_			"6692"
	SubPath_		""
	OutputPortIndex_	[1.0]
	LogicalPortIndex_	[0.0]
	SignalName_		""
	SubSysPath_		""
	Decimation_		[1.0]
	MaxPoints_		[0.0]
	TargetBufferedStreaming_ [0.0]
	IsFrameBased_		[0.0]
	DomainType_		""
	Array {
	  Type			  "Struct"
	  Dimension		  1
	  MATStruct {
	  }
	  PropName		  "DomainParams_"
	}
	VisualType_		""
      }
      MATStruct {
	UUID			"f3747c56-cb55-4f04-b162-0de5a97448a0"
	BlockPath_		"NREL Baseline Generator Torque Control"
	SID_			"7038"
	SubPath_		""
	OutputPortIndex_	[1.0]
	LogicalPortIndex_	[0.0]
	SignalName_		""
	SubSysPath_		""
	Decimation_		[1.0]
	MaxPoints_		[0.0]
	TargetBufferedStreaming_ [0.0]
	IsFrameBased_		[0.0]
	DomainType_		""
	Array {
	  Type			  "Struct"
	  Dimension		  1
	  MATStruct {
	  }
	  PropName		  "DomainParams_"
	}
	VisualType_		""
      }
      MATStruct {
	UUID			"74f7d8e1-2fd8-4118-bdb3-0543b6a8ef0a"
	BlockPath_		"OpenFAST Turbine Model"
	SID_			"7200"
	SubPath_		""
	OutputPortIndex_	[1.0]
	LogicalPortIndex_	[0.0]
	SignalName_		""
	SubSysPath_		""
	Decimation_		[1.0]
	MaxPoints_		[0.0]
	TargetBufferedStreaming_ [0.0]
	IsFrameBased_		[0.0]
	DomainType_		""
	Array {
	  Type			  "Struct"
	  Dimension		  1
	  MATStruct {
	  }
	  PropName		  "DomainParams_"
	}
	VisualType_		""
      }
      MATStruct {
	UUID			"82910ffd-ab65-4e4d-8c75-3728f68da5cd"
	BlockPath_		"OpenFAST Turbine Model"
	SID_			"7200"
	SubPath_		""
	OutputPortIndex_	[2.0]
	LogicalPortIndex_	[0.0]
	SignalName_		""
	SubSysPath_		""
	Decimation_		[1.0]
	MaxPoints_		[0.0]
	TargetBufferedStreaming_ [0.0]
	IsFrameBased_		[0.0]
	DomainType_		""
	Array {
	  Type			  "Struct"
	  Dimension		  1
	  MATStruct {
	  }
	  PropName		  "DomainParams_"
	}
	VisualType_		""
      }
      PropName		      "Persistence"
    }
  }
  ExtModeBatchMode	  off
  ExtModeEnableFloating	  on
  ExtModeTrigType	  "manual"
  ExtModeTrigMode	  "normal"
  ExtModeTrigPort	  "1"
  ExtModeTrigElement	  "any"
  ExtModeTrigDuration	  1000
  ExtModeTrigDurationFloating "auto"
  ExtModeTrigHoldOff	  0
  ExtModeTrigDelay	  0
  ExtModeTrigDirection	  "rising"
  ExtModeTrigLevel	  0
  ExtModeArchiveMode	  "off"
  ExtModeAutoIncOneShot	  off
  ExtModeIncDirWhenArm	  off
  ExtModeAddSuffixToVar	  off
  ExtModeWriteAllDataToWs off
  ExtModeArmWhenConnect	  on
  ExtModeSkipDownloadWhenConnect off
  ExtModeLogAll		  on
  ExtModeAutoUpdateStatusClock on
  ShowModelReferenceBlockVersion off
  ShowModelReferenceBlockIO off
  OrderedModelArguments	  on
  Array {
    Type		    "Handle"
    Dimension		    2
    Simulink.ConfigSet {
      $ObjectID		      14
      Version		      "20.0.1"
      DisabledProps	      []
      Description	      ""
      Array {
	Type			"Handle"
	Dimension		9
	Simulink.SolverCC {
	  $ObjectID		  15
	  Version		  "20.0.1"
	  DisabledProps		  []
	  Description		  ""
	  Components		  []
	  StartTime		  "0.0"
	  StopTime		  "Parameter.Time.TMax"
	  AbsTol		  "auto"
	  AutoScaleAbsTol	  on
	  FixedStep		  "Parameter.Time.dt"
	  InitialStep		  "auto"
	  MaxOrder		  5
	  ZcThreshold		  "auto"
	  ConsecutiveZCsStepRelTol "10*128*eps"
	  MaxConsecutiveZCs	  "1000"
	  ExtrapolationOrder	  4
	  NumberNewtonIterations  1
	  MaxStep		  "auto"
	  MinStep		  "auto"
	  MaxConsecutiveMinStep	  "1"
	  RelTol		  "1e-3"
	  EnableMultiTasking	  on
	  ConcurrentTasks	  off
	  Solver		  "ode4"
	  SolverName		  "ode4"
	  SolverJacobianMethodControl "auto"
	  ShapePreserveControl	  "DisableAll"
	  ZeroCrossControl	  "UseLocalSettings"
	  ZeroCrossAlgorithm	  "Nonadaptive"
	  AlgebraicLoopSolver	  "TrustRegion"
	  SolverInfoToggleStatus  off
	  IsAutoAppliedInSIP	  off
	  SolverResetMethod	  "Fast"
	  PositivePriorityOrder	  off
	  AutoInsertRateTranBlk	  off
	  SampleTimeConstraint	  "Unconstrained"
	  InsertRTBMode		  "Whenever possible"
	  SampleTimeProperty	  []
	  DecoupledContinuousIntegration off
	  MinimalZcImpactIntegration off
	  ODENIntegrationMethod	  "ode3"
	}
	Simulink.DataIOCC {
	  $ObjectID		  16
	  Version		  "20.0.1"
	  DisabledProps		  []
	  Description		  ""
	  Components		  []
	  Decimation		  "1"
	  ExternalInput		  "[t, u]"
	  FinalStateName	  "xFinal"
	  InitialState		  "xInitial"
	  LimitDataPoints	  on
	  MaxDataPoints		  "1000000"
	  LoadExternalInput	  off
	  LoadInitialState	  off
	  SaveFinalState	  off
	  SaveOperatingPoint	  off
	  SaveFormat		  "Array"
	  SignalLoggingSaveFormat "ModelDataLogs"
	  SaveOutput		  on
	  SaveState		  off
	  SignalLogging		  on
	  DSMLogging		  on
	  InspectSignalLogs	  off
	  VisualizeSimOutput	  on
	  StreamToWorkspace	  off
	  StreamVariableName	  "streamout"
	  SaveTime		  on
	  ReturnWorkspaceOutputs  off
	  StateSaveName		  "xout"
	  TimeSaveName		  "tout"
	  OutputSaveName	  "yout"
	  SignalLoggingName	  "logsout"
	  DSMLoggingName	  "dsmout"
	  OutputOption		  "RefineOutputTimes"
	  OutputTimes		  "[]"
	  ReturnWorkspaceOutputsName "out"
	  Refine		  "1"
	  LoggingToFile		  off
	  DatasetSignalFormat	  "timeseries"
	  LoggingFileName	  "out.mat"
	  LoggingIntervals	  "[-inf, inf]"
	}
	Simulink.OptimizationCC {
	  $ObjectID		  17
	  Version		  "20.0.1"
	  Array {
	    Type		    "Cell"
	    Dimension		    9
	    Cell		    "ZeroExternalMemoryAtStartup"
	    Cell		    "ZeroInternalMemoryAtStartup"
	    Cell		    "NoFixptDivByZeroProtection"
	    Cell		    "OptimizeModelRefInitCode"
	    Cell		    "BooleansAsBitfields"
	    Cell		    "PassReuseOutputArgsAs"
	    Cell		    "PassReuseOutputArgsThreshold"
	    Cell		    "UseSpecifiedMinMax"
	    Cell		    "EfficientTunableParamExpr"
	    PropName		    "DisabledProps"
	  }
	  Description		  ""
	  Components		  []
	  BlockReduction	  on
	  BooleanDataType	  on
	  ConditionallyExecuteInputs on
	  DefaultParameterBehavior "Tunable"
	  UseDivisionForNetSlopeComputation "off"
	  GainParamInheritBuiltInType off
	  UseFloatMulNetSlope	  off
	  DefaultUnderspecifiedDataType	"double"
	  UseSpecifiedMinMax	  off
	  InlineInvariantSignals  off
	  OptimizeBlockIOStorage  on
	  BufferReuse		  on
	  EnhancedBackFolding	  off
	  CachingGlobalReferences off
	  GlobalBufferReuse	  on
	  StrengthReduction	  off
	  AdvancedOptControl	  ""
	  ExpressionFolding	  on
	  BooleansAsBitfields	  off
	  BitfieldContainerType	  "uint_T"
	  BitwiseOrLogicalOp	  "Same as modeled"
	  EnableMemcpy		  on
	  MemcpyThreshold	  64
	  PassReuseOutputArgsAs	  "Structure reference"
	  PassReuseOutputArgsThreshold 12
	  ExpressionDepthLimit	  2147483647
	  LocalBlockOutputs	  on
	  RollThreshold		  5
	  StateBitsets		  off
	  DataBitsets		  off
	  ActiveStateOutputEnumStorageType "Native Integer"
	  ZeroExternalMemoryAtStartup on
	  ZeroInternalMemoryAtStartup on
	  InitFltsAndDblsToZero	  on
	  NoFixptDivByZeroProtection off
	  EfficientFloat2IntCast  off
	  EfficientMapNaN2IntZero on
	  LifeSpan		  "inf"
	  MaxStackSize		  "Inherit from target"
	  BufferReusableBoundary  on
	  SimCompilerOptimization "off"
	  AccelVerboseBuild	  off
	  OptimizeBlockOrder	  "off"
	  OptimizeDataStoreBuffers on
	  BusAssignmentInplaceUpdate on
	  DifferentSizesBufferReuse off
	  UseRowMajorAlgorithm	  off
	  OptimizationLevel	  "level2"
	  OptimizationPriority	  "Balanced"
	  OptimizationCustomize	  on
	  LabelGuidedReuse	  off
	  MultiThreadedLoops	  off
	  DenormalBehavior	  "GradualUnderflow"
	  EfficientTunableParamExpr off
	}
	Simulink.DebuggingCC {
	  $ObjectID		  18
	  Version		  "20.0.1"
	  Array {
	    Type		    "Cell"
	    Dimension		    1
	    Cell		    "UseOnlyExistingSharedCode"
	    PropName		    "DisabledProps"
	  }
	  Description		  ""
	  Components		  []
	  RTPrefix		  "error"
	  ConsistencyChecking	  "none"
	  ArrayBoundsChecking	  "none"
	  SignalInfNanChecking	  "none"
	  StringTruncationChecking "error"
	  SignalRangeChecking	  "none"
	  ReadBeforeWriteMsg	  "UseLocalSettings"
	  WriteAfterWriteMsg	  "UseLocalSettings"
	  WriteAfterReadMsg	  "UseLocalSettings"
	  AlgebraicLoopMsg	  "warning"
	  ArtificialAlgebraicLoopMsg "warning"
	  SaveWithDisabledLinksMsg "warning"
	  SaveWithParameterizedLinksMsg	"none"
	  CheckSSInitialOutputMsg on
	  UnderspecifiedInitializationDetection	"Classic"
	  MergeDetectMultiDrivingBlocksExec "none"
	  CheckExecutionContextPreStartOutputMsg off
	  CheckExecutionContextRuntimeOutputMsg	off
	  SignalResolutionControl "TryResolveAllWithWarning"
	  BlockPriorityViolationMsg "warning"
	  MinStepSizeMsg	  "warning"
	  TimeAdjustmentMsg	  "none"
	  MaxConsecutiveZCsMsg	  "error"
	  MaskedZcDiagnostic	  "warning"
	  IgnoredZcDiagnostic	  "warning"
	  SolverPrmCheckMsg	  "warning"
	  InheritedTsInSrcMsg	  "warning"
	  MultiTaskDSMMsg	  "warning"
	  MultiTaskCondExecSysMsg "none"
	  MultiTaskRateTransMsg	  "error"
	  SingleTaskRateTransMsg  "none"
	  TasksWithSamePriorityMsg "warning"
	  ExportedTasksRateTransMsg "none"
	  SigSpecEnsureSampleTimeMsg "warning"
	  CheckMatrixSingularityMsg "none"
	  IntegerOverflowMsg	  "warning"
	  Int32ToFloatConvMsg	  "warning"
	  ParameterDowncastMsg	  "error"
	  ParameterOverflowMsg	  "error"
	  ParameterUnderflowMsg	  "none"
	  ParameterPrecisionLossMsg "warning"
	  ParameterTunabilityLossMsg "warning"
	  FixptConstUnderflowMsg  "none"
	  FixptConstOverflowMsg	  "none"
	  FixptConstPrecisionLossMsg "none"
	  UnderSpecifiedDataTypeMsg "none"
	  UnnecessaryDatatypeConvMsg "none"
	  VectorMatrixConversionMsg "none"
	  FcnCallInpInsideContextMsg "warning"
	  SignalLabelMismatchMsg  "none"
	  UnconnectedInputMsg	  "warning"
	  UnconnectedOutputMsg	  "warning"
	  UnconnectedLineMsg	  "warning"
	  UseOnlyExistingSharedCode "error"
	  SFcnCompatibilityMsg	  "none"
	  FrameProcessingCompatibilityMsg "error"
	  UniqueDataStoreMsg	  "none"
	  BusObjectLabelMismatch  "warning"
	  RootOutportRequireBusObject "warning"
	  AssertControl		  "UseLocalSettings"
	  AllowSymbolicDim	  off
	  RowMajorDimensionSupport off
	  ModelReferenceIOMsg	  "none"
	  ModelReferenceMultiInstanceNormalModeStructChecksumCheck "error"
	  ModelReferenceVersionMismatchMessage "none"
	  ModelReferenceIOMismatchMessage "none"
	  UnknownTsInhSupMsg	  "warning"
	  ModelReferenceDataLoggingMessage "warning"
	  ModelReferenceSymbolNameMessage "warning"
	  ModelReferenceExtraNoncontSigs "error"
	  StateNameClashWarn	  "warning"
	  OperatingPointInterfaceChecksumMismatchMsg "warning"
	  NonCurrentReleaseOperatingPointMsg "error"
	  ChecksumConsistencyForSSReuse	"none"
	  PregeneratedLibrarySubsystemCodeDiagnostic "warning"
	  MatchCodeGenerationContextForUpdateDiagram "none"
	  InitInArrayFormatMsg	  "warning"
	  StrictBusMsg		  "ErrorLevel1"
	  BusNameAdapt		  "WarnAndRepair"
	  NonBusSignalsTreatedAsBus "none"
	  SymbolicDimMinMaxWarning "warning"
	  LossOfSymbolicDimsSimulationWarning "warning"
	  LossOfSymbolicDimsCodeGenerationWarning "error"
	  SymbolicDimsDataTypeCodeGenerationDiagnostic "error"
	  BlockIODiagnostic	  "none"
	  SFUnusedDataAndEventsDiag "warning"
	  SFUnexpectedBacktrackingDiag "warning"
	  SFInvalidInputDataAccessInChartInitDiag "warning"
	  SFNoUnconditionalDefaultTransitionDiag "warning"
	  SFTransitionOutsideNaturalParentDiag "warning"
	  SFUnreachableExecutionPathDiag "warning"
	  SFUndirectedBroadcastEventsDiag "warning"
	  SFTransitionActionBeforeConditionDiag	"warning"
	  SFOutputUsedAsStateInMooreChartDiag "error"
	  SFTemporalDelaySmallerThanSampleTimeDiag "warning"
	  SFSelfTransitionDiag	  "warning"
	  SFExecutionAtInitializationDiag "none"
	  SFMachineParentedDataDiag "warning"
	  IntegerSaturationMsg	  "warning"
	  AllowedUnitSystems	  "all"
	  UnitsInconsistencyMsg	  "warning"
	  AllowAutomaticUnitConversions	on
	  RCSCRenamedMsg	  "warning"
	  RCSCObservableMsg	  "warning"
	  ForceCombineOutputUpdateInSim	off
	  UnitDatabase		  ""
	  UnderSpecifiedDimensionMsg "none"
	  DebugExecutionForFMUViaOutOfProcess off
	  ArithmeticOperatorsInVariantConditions "warning"
	}
	Simulink.HardwareCC {
	  $ObjectID		  19
	  Version		  "20.0.1"
	  DisabledProps		  []
	  Description		  ""
	  Components		  []
	  ProdBitPerChar	  8
	  ProdBitPerShort	  16
	  ProdBitPerInt		  32
	  ProdBitPerLong	  32
	  ProdBitPerLongLong	  64
	  ProdBitPerFloat	  32
	  ProdBitPerDouble	  64
	  ProdBitPerPointer	  32
	  ProdBitPerSizeT	  32
	  ProdBitPerPtrDiffT	  32
	  ProdLargestAtomicInteger "Char"
	  ProdLargestAtomicFloat  "None"
	  ProdIntDivRoundTo	  "Undefined"
	  ProdEndianess		  "Unspecified"
	  ProdWordSize		  32
	  ProdShiftRightIntArith  on
	  ProdLongLongMode	  off
	  ProdHWDeviceType	  "32-bit Generic"
	  TargetBitPerChar	  8
	  TargetBitPerShort	  16
	  TargetBitPerInt	  32
	  TargetBitPerLong	  32
	  TargetBitPerLongLong	  64
	  TargetBitPerFloat	  32
	  TargetBitPerDouble	  64
	  TargetBitPerPointer	  32
	  TargetBitPerSizeT	  32
	  TargetBitPerPtrDiffT	  32
	  TargetLargestAtomicInteger "Char"
	  TargetLargestAtomicFloat "None"
	  TargetShiftRightIntArith on
	  TargetLongLongMode	  off
	  TargetIntDivRoundTo	  "Undefined"
	  TargetEndianess	  "Unspecified"
	  TargetWordSize	  32
	  TargetPreprocMaxBitsSint 32
	  TargetPreprocMaxBitsUint 32
	  TargetHWDeviceType	  "32-bit Generic"
	  TargetUnknown		  off
	  ProdEqTarget		  on
	  UseEmbeddedCoderFeatures on
	  UseSimulinkCoderFeatures on
	  HardwareBoardFeatureSet "EmbeddedCoderHSP"
	}
	Simulink.ModelReferenceCC {
	  $ObjectID		  20
	  Version		  "20.0.1"
	  DisabledProps		  []
	  Description		  ""
	  Components		  []
	  UpdateModelReferenceTargets "IfOutOfDateOrStructuralChange"
	  EnableRefExpFcnMdlSchedulingChecks on
	  CheckModelReferenceTargetMessage "error"
	  EnableParallelModelReferenceBuilds off
	  ParallelModelReferenceErrorOnInvalidPool on
	  ParallelModelReferenceMATLABWorkerInit "None"
	  ModelReferenceNumInstancesAllowed "Multi"
	  PropagateVarSize	  "Infer from blocks in model"
	  ModelDependencies	  ""
	  ModelReferencePassRootInputsByReference on
	  ModelReferenceMinAlgLoopOccurrences off
	  PropagateSignalLabelsOutOfModel off
	  SupportModelReferenceSimTargetCustomCode off
	}
	Simulink.SFSimCC {
	  $ObjectID		  21
	  Version		  "20.0.1"
	  DisabledProps		  []
	  Description		  ""
	  Components		  []
	  SimCustomSourceCode	  ""
	  SimCustomHeaderCode	  ""
	  SimCustomInitializer	  ""
	  SimCustomTerminator	  ""
	  SimReservedNameArray	  []
	  SimUserSources	  ""
	  SimUserIncludeDirs	  ""
	  SimUserLibraries	  ""
	  SimUserDefines	  ""
	  SimCustomCompilerFlags  ""
	  SimCustomLinkerFlags	  ""
	  SFSimEcho		  on
	  SimCtrlC		  on
	  SimIntegrity		  on
	  SimUseLocalCustomCode	  off
	  SimParseCustomCode	  on
	  SimAnalyzeCustomCode	  off
	  SimBuildMode		  "sf_incremental_build"
	  SimGenImportedTypeDefs  off
	  ModelFunctionsGlobalVisibility "on"
	  CompileTimeRecursionLimit 50
	  EnableRuntimeRecursion  on
	  MATLABDynamicMemAlloc	  on
	  MATLABDynamicMemAllocThreshold 65536
	  CustomCodeFunctionArrayLayout	[]
	  DefaultCustomCodeFunctionArrayLayout "NotSpecified"
	  CustomCodeUndefinedFunction "UseInterfaceOnly"
	}
	Simulink.RTWCC {
	  $BackupClass		  "Simulink.RTWCC"
	  $ObjectID		  22
	  Version		  "20.0.1"
	  Array {
	    Type		    "Cell"
	    Dimension		    16
	    Cell		    "IncludeHyperlinkInReport"
	    Cell		    "GenerateTraceInfo"
	    Cell		    "GenerateTraceReport"
	    Cell		    "GenerateTraceReportSl"
	    Cell		    "GenerateTraceReportSf"
	    Cell		    "GenerateTraceReportEml"
	    Cell		    "PortableWordSizes"
	    Cell		    "GenerateWebview"
	    Cell		    "GenerateCodeMetricsReport"
	    Cell		    "GenerateCodeReplacementReport"
	    Cell		    "GenerateMissedCodeReplacementReport"
	    Cell		    "GenerateErtSFunction"
	    Cell		    "CreateSILPILBlock"
	    Cell		    "CodeExecutionProfiling"
	    Cell		    "CodeProfilingSaveOptions"
	    Cell		    "CodeProfilingInstrumentation"
	    PropName		    "DisabledProps"
	  }
	  Description		  ""
	  SystemTargetFile	  "grt.tlc"
	  HardwareBoard		  "None"
	  ShowCustomHardwareApp	  off
	  ShowEmbeddedHardwareApp off
	  TLCOptions		  ""
	  GenCodeOnly		  off
	  MakeCommand		  "make_rtw"
	  GenerateMakefile	  on
	  PackageGeneratedCodeAndArtifacts off
	  PackageName		  ""
	  TemplateMakefile	  "grt_default_tmf"
	  PostCodeGenCommand	  ""
	  GenerateReport	  off
	  RTWVerbose		  on
	  RetainRTWFile		  off
	  RTWBuildHooks		  []
	  ProfileTLC		  off
	  TLCDebug		  off
	  TLCCoverage		  off
	  TLCAssert		  off
	  RTWUseLocalCustomCode	  off
	  RTWUseSimCustomCode	  off
	  CustomSourceCode	  ""
	  CustomHeaderCode	  ""
	  CustomInclude		  ""
	  CustomSource		  ""
	  CustomLibrary		  ""
	  CustomDefine		  ""
	  CustomBLASCallback	  ""
	  CustomLAPACKCallback	  ""
	  CustomFFTCallback	  ""
	  CustomInitializer	  ""
	  CustomTerminator	  ""
	  Toolchain		  "Automatically locate an installed toolchain"
	  BuildConfiguration	  "Faster Builds"
	  CustomToolchainOptions  []
	  IncludeHyperlinkInReport off
	  LaunchReport		  off
	  PortableWordSizes	  off
	  CreateSILPILBlock	  "None"
	  CodeExecutionProfiling  off
	  CodeExecutionProfileVariable "executionProfile"
	  CodeProfilingSaveOptions "SummaryOnly"
	  CodeProfilingInstrumentation "off"
	  SILDebugging		  off
	  TargetLang		  "C"
	  IncludeBusHierarchyInRTWFileBlockHierarchyMap	off
	  GenerateTraceInfo	  off
	  GenerateTraceReport	  off
	  GenerateTraceReportSl	  off
	  GenerateTraceReportSf	  off
	  GenerateTraceReportEml  off
	  GenerateWebview	  off
	  GenerateCodeMetricsReport off
	  GenerateCodeReplacementReport	off
	  GenerateMissedCodeReplacementReport off
	  RTWCompilerOptimization "off"
	  ObjectivePriorities	  []
	  RTWCustomCompilerOptimizations ""
	  CheckMdlBeforeBuild	  "Off"
	  SharedConstantsCachingThreshold 1024
	  Array {
	    Type		    "Handle"
	    Dimension		    2
	    Simulink.CodeAppCC {
	      $ObjectID		      23
	      Version		      "20.0.1"
	      Array {
		Type			"Cell"
		Dimension		28
		Cell			"IgnoreCustomStorageClasses"
		Cell			"InsertBlockDesc"
		Cell			"SFDataObjDesc"
		Cell			"SimulinkDataObjDesc"
		Cell			"DefineNamingRule"
		Cell			"SignalNamingRule"
		Cell			"ParamNamingRule"
		Cell			"InlinedPrmAccess"
		Cell			"CustomSymbolStr"
		Cell			"IgnoreTestpoints"
		Cell			"InsertPolySpaceComments"
		Cell			"MATLABFcnDesc"
		Cell			"InternalIdentifier"
		Cell			"CustomSymbolStrGlobalVar"
		Cell			"CustomSymbolStrType"
		Cell			"CustomSymbolStrField"
		Cell			"CustomSymbolStrFcn"
		Cell			"CustomSymbolStrModelFcn"
		Cell			"CustomSymbolStrFcnArg"
		Cell			"CustomSymbolStrBlkIO"
		Cell			"CustomSymbolStrTmpVar"
		Cell			"CustomSymbolStrMacro"
		Cell			"CustomSymbolStrUtil"
		Cell			"CustomUserTokenString"
		Cell			"ReqsInCode"
		Cell			"BlockCommentType"
		Cell			"CustomSymbolStrEmxType"
		Cell			"CustomSymbolStrEmxFcn"
		PropName		"DisabledProps"
	      }
	      Description	      ""
	      Components	      []
	      Comment		      ""
	      ForceParamTrailComments off
	      GenerateComments	      on
	      CommentStyle	      "Auto"
	      IgnoreCustomStorageClasses on
	      IgnoreTestpoints	      off
	      MaxIdLength	      31
	      PreserveName	      off
	      PreserveNameWithParent  off
	      ShowEliminatedStatement off
	      OperatorAnnotations     off
	      SimulinkDataObjDesc     off
	      SFDataObjDesc	      off
	      MATLABFcnDesc	      off
	      MangleLength	      1
	      SharedChecksumLength    8
	      CustomSymbolStrGlobalVar "$R$N$M"
	      CustomSymbolStrType     "$N$R$M_T"
	      CustomSymbolStrField    "$N$M"
	      CustomSymbolStrFcn      "$R$N$M$F"
	      CustomSymbolStrModelFcn "$R$N"
	      CustomSymbolStrFcnArg   "rt$I$N$M"
	      CustomSymbolStrBlkIO    "rtb_$N$M"
	      CustomSymbolStrTmpVar   "$N$M"
	      CustomSymbolStrMacro    "$R$N$M"
	      CustomSymbolStrUtil     "$N$C"
	      CustomSymbolStrEmxType  "emxArray_$M$N"
	      CustomSymbolStrEmxFcn   "emx$M$N"
	      CustomUserTokenString   ""
	      CustomCommentsFcn	      ""
	      DefineNamingRule	      "None"
	      DefineNamingFcn	      ""
	      ParamNamingRule	      "None"
	      ParamNamingFcn	      ""
	      SignalNamingRule	      "None"
	      SignalNamingFcn	      ""
	      InsertBlockDesc	      off
	      InsertPolySpaceComments off
	      SimulinkBlockComments   on
	      BlockCommentType	      "BlockPathComment"
	      StateflowObjectComments on
	      MATLABSourceComments    off
	      EnableCustomComments    off
	      InternalIdentifierFile  ""
	      InternalIdentifier      "Shortened"
	      InlinedPrmAccess	      "Literals"
	      ReqsInCode	      off
	      UseSimReservedNames     off
	      ReservedNameArray	      []
	      EnumMemberNameClash     "error"
	    }
	    Simulink.GRTTargetCC {
	      $BackupClass	      "Simulink.TargetCC"
	      $ObjectID		      24
	      Version		      "20.0.1"
	      Array {
		Type			"Cell"
		Dimension		18
		Cell			"IncludeMdlTerminateFcn"
		Cell			"CombineOutputUpdateFcns"
		Cell			"SuppressErrorStatus"
		Cell			"ERTCustomFileBanners"
		Cell			"GenerateSampleERTMain"
		Cell			"SupportNonInlinedSFcns"
		Cell			"PurelyIntegerCode"
		Cell			"SupportNonFinite"
		Cell			"SupportComplex"
		Cell			"SupportAbsoluteTime"
		Cell			"SupportContinuousTime"
		Cell			"GenerateAllocFcn"
		Cell			"ExistingSharedCode"
		Cell			"GenerateTestInterfaces"
		Cell			"ModelStepFunctionPrototypeControlCompliant"
		Cell			"RemoveDisableFunc"
		Cell			"RemoveResetFunc"
		Cell			"PreserveStateflowLocalDataDimensions"
		PropName		"DisabledProps"
	      }
	      Description	      ""
	      Components	      []
	      TargetFcnLib	      "ansi_tfl_tmw.mat"
	      TargetLibSuffix	      ""
	      TargetPreCompLibLocation ""
	      GenFloatMathFcnCalls    "NOT IN USE"